data/feeders/R5-12.47-3.glm
clock {
     timezone EST+5EDT;
     timestamp '2000-01-01 0:00:00';
     stoptime '2000-01-01 0:01:00';
}
#set profiler=1
module tape;
module powerflow{
  solver_method NR;
  default_maximum_voltage_error 1e-6;
};
object transformer_configuration {
  name XF1_POLETOP_BS_10;
  power_rating 10.00;
  powerA_rating 0.0;
  powerB_rating 10.00;
  powerC_rating 0.0;
  install_type POLETOP;
  connect_type SINGLE_PHASE_CENTER_TAPPED;
  primary_voltage 7970.0;
  secondary_voltage 120.0;
  resistance 0.00950;
  resistance1 0.01900;
  resistance2 0.01900;
  reactance 0.01040;
  reactance1 0.00520;
  reactance2 0.00520;
  shunt_resistance 147.06;
  shunt_reactance 34.25;
}
object transformer_configuration {
  name XF1_POLETOP_AS_5;
  power_rating 5.00;
  powerA_rating 5.00;
  powerB_rating 0.0;
  powerC_rating 0.0;
  install_type POLETOP;
  connect_type SINGLE_PHASE_CENTER_TAPPED;
  primary_voltage 7970.0;
  secondary_voltage 120.0;
  resistance 0.01050;
  resistance1 0.02100;
  resistance2 0.02100;
  reactance 0.01224;
  reactance1 0.00612;
  reactance2 0.00612;
  shunt_resistance 111.11;
  shunt_reactance 29.59;
}
object transformer_configuration {
  name XF1_POLETOP_BS_5;
  power_rating 5.00;
  powerA_rating 0.0;
  powerB_rating 5.00;
  powerC_rating 0.0;
  install_type POLETOP;
  connect_type SINGLE_PHASE_CENTER_TAPPED;
  primary_voltage 7970.0;
  secondary_voltage 120.0;
  resistance 0.01050;
  resistance1 0.02100;
  resistance2 0.02100;
  reactance 0.01224;
  reactance1 0.00612;
  reactance2 0.00612;
  shunt_resistance 111.11;
  shunt_reactance 29.59;
}
object transformer_configuration {
  name XF1_POLETOP_CS_5;
  power_rating 5.00;
  powerA_rating 0.0;
  powerB_rating 0.0;
  powerC_rating 5.00;
  install_type POLETOP;
  connect_type SINGLE_PHASE_CENTER_TAPPED;
  primary_voltage 7970.0;
  secondary_voltage 120.0;
  resistance 0.01050;
  resistance1 0.02100;
  resistance2 0.02100;
  reactance 0.01224;
  reactance1 0.00612;
  reactance2 0.00612;
  shunt_resistance 111.11;
  shunt_reactance 29.59;
}
object transformer_configuration {
  name XF1_POLETOP_CS_15;
  power_rating 15.00;
  powerA_rating 0.0;
  powerB_rating 0.0;
  powerC_rating 15.00;
  install_type POLETOP;
  connect_type SINGLE_PHASE_CENTER_TAPPED;
  primary_voltage 7970.0;
  secondary_voltage 120.0;
  resistance 0.00850;
  resistance1 0.01700;
  resistance2 0.01700;
  reactance 0.01176;
  reactance1 0.00588;
  reactance2 0.00588;
  shunt_resistance 166.67;
  shunt_reactance 39.53;
}
object transformer_configuration {
  name XF1_POLETOP_CS_10;
  power_rating 10.00;
  powerA_rating 0.0;
  powerB_rating 0.0;
  powerC_rating 10.00;
  install_type POLETOP;
  connect_type SINGLE_PHASE_CENTER_TAPPED;
  primary_voltage 7970.0;
  secondary_voltage 120.0;
  resistance 0.00950;
  resistance1 0.01900;
  resistance2 0.01900;
  reactance 0.01040;
  reactance1 0.00520;
  reactance2 0.00520;
  shunt_resistance 147.06;
  shunt_reactance 34.25;
}
object transformer_configuration {
  name XF1_POLETOP_BS_15;
  power_rating 15.00;
  powerA_rating 0.0;
  powerB_rating 15.00;
  powerC_rating 0.0;
  install_type POLETOP;
  connect_type SINGLE_PHASE_CENTER_TAPPED;
  primary_voltage 7970.0;
  secondary_voltage 120.0;
  resistance 0.00850;
  resistance1 0.01700;
  resistance2 0.01700;
  reactance 0.01176;
  reactance1 0.00588;
  reactance2 0.00588;
  shunt_resistance 166.67;
  shunt_reactance 39.53;
}
object transformer_configuration {
  name XF1_PADMOUNT_AS_10;
  power_rating 10.00;
  powerA_rating 10.00;
  powerB_rating 0.0;
  powerC_rating 0.0;
  install_type PADMOUNT;
  connect_type SINGLE_PHASE_CENTER_TAPPED;
  primary_voltage 7970.0;
  secondary_voltage 120.0;
  resistance 0.00950;
  resistance1 0.01900;
  resistance2 0.01900;
  reactance 0.01040;
  reactance1 0.00520;
  reactance2 0.00520;
  shunt_resistance 147.06;
  shunt_reactance 34.25;
}
object transformer_configuration {
  name XF1_POLETOP_AS_10;
  power_rating 10.00;
  powerA_rating 10.00;
  powerB_rating 0.0;
  powerC_rating 0.0;
  install_type POLETOP;
  connect_type SINGLE_PHASE_CENTER_TAPPED;
  primary_voltage 7970.0;
  secondary_voltage 120.0;
  resistance 0.00950;
  resistance1 0.01900;
  resistance2 0.01900;
  reactance 0.01040;
  reactance1 0.00520;
  reactance2 0.00520;
  shunt_resistance 147.06;
  shunt_reactance 34.25;
}
object transformer_configuration {
  name XF1_PADMOUNT_BS_15;
  power_rating 15.00;
  powerA_rating 0.0;
  powerB_rating 15.00;
  powerC_rating 0.0;
  install_type PADMOUNT;
  connect_type SINGLE_PHASE_CENTER_TAPPED;
  primary_voltage 7970.0;
  secondary_voltage 120.0;
  resistance 0.00850;
  resistance1 0.01700;
  resistance2 0.01700;
  reactance 0.01176;
  reactance1 0.00588;
  reactance2 0.00588;
  shunt_resistance 166.67;
  shunt_reactance 39.53;
}
object transformer_configuration {
  name XF1_PADMOUNT_AS_5;
  power_rating 5.00;
  powerA_rating 5.00;
  powerB_rating 0.0;
  powerC_rating 0.0;
  install_type PADMOUNT;
  connect_type SINGLE_PHASE_CENTER_TAPPED;
  primary_voltage 7970.0;
  secondary_voltage 120.0;
  resistance 0.01050;
  resistance1 0.02100;
  resistance2 0.02100;
  reactance 0.01224;
  reactance1 0.00612;
  reactance2 0.00612;
  shunt_resistance 111.11;
  shunt_reactance 29.59;
}
object transformer_configuration {
  name XF1_PADMOUNT_BS_5;
  power_rating 5.00;
  powerA_rating 0.0;
  powerB_rating 5.00;
  powerC_rating 0.0;
  install_type PADMOUNT;
  connect_type SINGLE_PHASE_CENTER_TAPPED;
  primary_voltage 7970.0;
  secondary_voltage 120.0;
  resistance 0.01050;
  resistance1 0.02100;
  resistance2 0.02100;
  reactance 0.01224;
  reactance1 0.00612;
  reactance2 0.00612;
  shunt_resistance 111.11;
  shunt_reactance 29.59;
}
object transformer_configuration {
  name XF1_PADMOUNT_CS_5;
  power_rating 5.00;
  powerA_rating 0.0;
  powerB_rating 0.0;
  powerC_rating 5.00;
  install_type PADMOUNT;
  connect_type SINGLE_PHASE_CENTER_TAPPED;
  primary_voltage 7970.0;
  secondary_voltage 120.0;
  resistance 0.01050;
  resistance1 0.02100;
  resistance2 0.02100;
  reactance 0.01224;
  reactance1 0.00612;
  reactance2 0.00612;
  shunt_resistance 111.11;
  shunt_reactance 29.59;
}
object transformer_configuration {
  name XF1_PADMOUNT_BS_25;
  power_rating 25.00;
  powerA_rating 0.0;
  powerB_rating 25.00;
  powerC_rating 0.0;
  install_type PADMOUNT;
  connect_type SINGLE_PHASE_CENTER_TAPPED;
  primary_voltage 7970.0;
  secondary_voltage 120.0;
  resistance 0.00800;
  resistance1 0.01600;
  resistance2 0.01600;
  reactance 0.01208;
  reactance1 0.00604;
  reactance2 0.00604;
  shunt_resistance 192.31;
  shunt_reactance 51.81;
}
object transformer_configuration {
  name XF1_POLETOP_CS_25;
  power_rating 25.00;
  powerA_rating 0.0;
  powerB_rating 0.0;
  powerC_rating 25.00;
  install_type POLETOP;
  connect_type SINGLE_PHASE_CENTER_TAPPED;
  primary_voltage 7970.0;
  secondary_voltage 120.0;
  resistance 0.00800;
  resistance1 0.01600;
  resistance2 0.01600;
  reactance 0.01208;
  reactance1 0.00604;
  reactance2 0.00604;
  shunt_resistance 192.31;
  shunt_reactance 51.81;
}
object transformer_configuration {
  name XF1_POLETOP_AS_15;
  power_rating 15.00;
  powerA_rating 15.00;
  powerB_rating 0.0;
  powerC_rating 0.0;
  install_type POLETOP;
  connect_type SINGLE_PHASE_CENTER_TAPPED;
  primary_voltage 7970.0;
  secondary_voltage 120.0;
  resistance 0.00850;
  resistance1 0.01700;
  resistance2 0.01700;
  reactance 0.01176;
  reactance1 0.00588;
  reactance2 0.00588;
  shunt_resistance 166.67;
  shunt_reactance 39.53;
}
object transformer_configuration {
  name XF1_PADMOUNT_CS_15;
  power_rating 15.00;
  powerA_rating 0.0;
  powerB_rating 0.0;
  powerC_rating 15.00;
  install_type PADMOUNT;
  connect_type SINGLE_PHASE_CENTER_TAPPED;
  primary_voltage 7970.0;
  secondary_voltage 120.0;
  resistance 0.00850;
  resistance1 0.01700;
  resistance2 0.01700;
  reactance 0.01176;
  reactance1 0.00588;
  reactance2 0.00588;
  shunt_resistance 166.67;
  shunt_reactance 39.53;
}
object transformer_configuration {
  name XF1_PADMOUNT_AS_15;
  power_rating 15.00;
  powerA_rating 15.00;
  powerB_rating 0.0;
  powerC_rating 0.0;
  install_type PADMOUNT;
  connect_type SINGLE_PHASE_CENTER_TAPPED;
  primary_voltage 7970.0;
  secondary_voltage 120.0;
  resistance 0.00850;
  resistance1 0.01700;
  resistance2 0.01700;
  reactance 0.01176;
  reactance1 0.00588;
  reactance2 0.00588;
  shunt_resistance 166.67;
  shunt_reactance 39.53;
}
object transformer_configuration {
  name XF1_PADMOUNT_BS_10;
  power_rating 10.00;
  powerA_rating 0.0;
  powerB_rating 10.00;
  powerC_rating 0.0;
  install_type PADMOUNT;
  connect_type SINGLE_PHASE_CENTER_TAPPED;
  primary_voltage 7970.0;
  secondary_voltage 120.0;
  resistance 0.00950;
  resistance1 0.01900;
  resistance2 0.01900;
  reactance 0.01040;
  reactance1 0.00520;
  reactance2 0.00520;
  shunt_resistance 147.06;
  shunt_reactance 34.25;
}
object transformer_configuration {
  name XF1_PADMOUNT_CS_25;
  power_rating 25.00;
  powerA_rating 0.0;
  powerB_rating 0.0;
  powerC_rating 25.00;
  install_type PADMOUNT;
  connect_type SINGLE_PHASE_CENTER_TAPPED;
  primary_voltage 7970.0;
  secondary_voltage 120.0;
  resistance 0.00800;
  resistance1 0.01600;
  resistance2 0.01600;
  reactance 0.01208;
  reactance1 0.00604;
  reactance2 0.00604;
  shunt_resistance 192.31;
  shunt_reactance 51.81;
}
object transformer_configuration {
  name XF1_PADMOUNT_CS_10;
  power_rating 10.00;
  powerA_rating 0.0;
  powerB_rating 0.0;
  powerC_rating 10.00;
  install_type PADMOUNT;
  connect_type SINGLE_PHASE_CENTER_TAPPED;
  primary_voltage 7970.0;
  secondary_voltage 120.0;
  resistance 0.00950;
  resistance1 0.01900;
  resistance2 0.01900;
  reactance 0.01040;
  reactance1 0.00520;
  reactance2 0.00520;
  shunt_resistance 147.06;
  shunt_reactance 34.25;
}
object transformer_configuration {
  name XF1_POLETOP_BS_25;
  power_rating 25.00;
  powerA_rating 0.0;
  powerB_rating 25.00;
  powerC_rating 0.0;
  install_type POLETOP;
  connect_type SINGLE_PHASE_CENTER_TAPPED;
  primary_voltage 7970.0;
  secondary_voltage 120.0;
  resistance 0.00800;
  resistance1 0.01600;
  resistance2 0.01600;
  reactance 0.01208;
  reactance1 0.00604;
  reactance2 0.00604;
  shunt_resistance 192.31;
  shunt_reactance 51.81;
}
object transformer_configuration {
  name XF1_POLETOP_AS_25;
  power_rating 25.00;
  powerA_rating 25.00;
  powerB_rating 0.0;
  powerC_rating 0.0;
  install_type POLETOP;
  connect_type SINGLE_PHASE_CENTER_TAPPED;
  primary_voltage 7970.0;
  secondary_voltage 120.0;
  resistance 0.00800;
  resistance1 0.01600;
  resistance2 0.01600;
  reactance 0.01208;
  reactance1 0.00604;
  reactance2 0.00604;
  shunt_resistance 192.31;
  shunt_reactance 51.81;
}
object transformer_configuration {
  name XF1_POLETOP_BS_75;
  power_rating 75.00;
  powerA_rating 0.0;
  powerB_rating 75.00;
  powerC_rating 0.0;
  install_type POLETOP;
  connect_type SINGLE_PHASE_CENTER_TAPPED;
  primary_voltage 7970.0;
  secondary_voltage 120.0;
  resistance 0.00625;
  resistance1 0.01250;
  resistance2 0.01250;
  reactance 0.01352;
  reactance1 0.00676;
  reactance2 0.00676;
  shunt_resistance 238.10;
  shunt_reactance 67.11;
}
object transformer_configuration {
  name XF3_POLETOP_ABCN_30;
  power_rating 30.00;
  powerA_rating 10.00;
  powerB_rating 10.00;
  powerC_rating 10.00;
  install_type POLETOP;
  connect_type WYE_WYE;
  primary_voltage 13800.0;
  secondary_voltage 208.0;
  resistance 0.01900;
  reactance 0.01770;
  shunt_resistance 126.58;
  shunt_reactance 22.57;
}
object transformer_configuration {
  name XF1_POLETOP_AN_5;
  power_rating 5.00;
  powerA_rating 5.00;
  powerB_rating 0.0;
  powerC_rating 0.0;
  install_type POLETOP;
  connect_type WYE_WYE;
  primary_voltage 13800.0;
  secondary_voltage 208.0;
  resistance 0.01900;
  reactance 0.01770;
  shunt_resistance 126.58;
  shunt_reactance 22.57;
}
object transformer_configuration {
  name XF1_PADMOUNT_AN_5;
  power_rating 5.00;
  powerA_rating 5.00;
  powerB_rating 0.0;
  powerC_rating 0.0;
  install_type PADMOUNT;
  connect_type WYE_WYE;
  primary_voltage 13800.0;
  secondary_voltage 208.0;
  resistance 0.01900;
  reactance 0.01770;
  shunt_resistance 126.58;
  shunt_reactance 22.57;
}
object transformer_configuration {
  name XF2_PADMOUNT_ACN_30;
  power_rating 30.00;
  powerA_rating 15.00;
  powerB_rating 0.0;
  powerC_rating 15.00;
  install_type PADMOUNT;
  connect_type WYE_WYE;
  primary_voltage 13800.0;
  secondary_voltage 208.0;
  resistance 0.01900;
  reactance 0.01770;
  shunt_resistance 126.58;
  shunt_reactance 22.57;
}
object transformer_configuration {
  name XF1_PADMOUNT_BN_5;
  power_rating 5.00;
  powerA_rating 0.0;
  powerB_rating 5.00;
  powerC_rating 0.0;
  install_type PADMOUNT;
  connect_type WYE_WYE;
  primary_voltage 13800.0;
  secondary_voltage 208.0;
  resistance 0.01900;
  reactance 0.01770;
  shunt_resistance 126.58;
  shunt_reactance 22.57;
}
object transformer_configuration {
  name XF1_PADMOUNT_BN_10;
  power_rating 10.00;
  powerA_rating 0.0;
  powerB_rating 10.00;
  powerC_rating 0.0;
  install_type PADMOUNT;
  connect_type WYE_WYE;
  primary_voltage 13800.0;
  secondary_voltage 208.0;
  resistance 0.01900;
  reactance 0.01770;
  shunt_resistance 126.58;
  shunt_reactance 22.57;
}
object transformer_configuration {
  name XF1_PADMOUNT_AN_10;
  power_rating 10.00;
  powerA_rating 10.00;
  powerB_rating 0.0;
  powerC_rating 0.0;
  install_type PADMOUNT;
  connect_type WYE_WYE;
  primary_voltage 13800.0;
  secondary_voltage 208.0;
  resistance 0.01900;
  reactance 0.01770;
  shunt_resistance 126.58;
  shunt_reactance 22.57;
}
object transformer_configuration {
  name XF1_POLETOP_CN_5;
  power_rating 5.00;
  powerA_rating 0.0;
  powerB_rating 0.0;
  powerC_rating 5.00;
  install_type POLETOP;
  connect_type WYE_WYE;
  primary_voltage 13800.0;
  secondary_voltage 208.0;
  resistance 0.01900;
  reactance 0.01770;
  shunt_resistance 126.58;
  shunt_reactance 22.57;
}
object transformer_configuration {
  name XF1_POLETOP_BN_5;
  power_rating 5.00;
  powerA_rating 0.0;
  powerB_rating 5.00;
  powerC_rating 0.0;
  install_type POLETOP;
  connect_type WYE_WYE;
  primary_voltage 13800.0;
  secondary_voltage 208.0;
  resistance 0.01900;
  reactance 0.01770;
  shunt_resistance 126.58;
  shunt_reactance 22.57;
}
object transformer_configuration {
  name XF1_PADMOUNT_CN_10;
  power_rating 10.00;
  powerA_rating 0.0;
  powerB_rating 0.0;
  powerC_rating 10.00;
  install_type PADMOUNT;
  connect_type WYE_WYE;
  primary_voltage 13800.0;
  secondary_voltage 208.0;
  resistance 0.01900;
  reactance 0.01770;
  shunt_resistance 126.58;
  shunt_reactance 22.57;
}
object transformer_configuration {
  name XF1_POLETOP_AN_10;
  power_rating 10.00;
  powerA_rating 10.00;
  powerB_rating 0.0;
  powerC_rating 0.0;
  install_type POLETOP;
  connect_type WYE_WYE;
  primary_voltage 13800.0;
  secondary_voltage 208.0;
  resistance 0.01900;
  reactance 0.01770;
  shunt_resistance 126.58;
  shunt_reactance 22.57;
}
object transformer_configuration {
  name XF1_POLETOP_AN_15;
  power_rating 15.00;
  powerA_rating 15.00;
  powerB_rating 0.0;
  powerC_rating 0.0;
  install_type POLETOP;
  connect_type WYE_WYE;
  primary_voltage 13800.0;
  secondary_voltage 208.0;
  resistance 0.01900;
  reactance 0.01770;
  shunt_resistance 126.58;
  shunt_reactance 22.57;
}
object transformer_configuration {
  name XF1_POLETOP_BN_10;
  power_rating 10.00;
  powerA_rating 0.0;
  powerB_rating 10.00;
  powerC_rating 0.0;
  install_type POLETOP;
  connect_type WYE_WYE;
  primary_voltage 13800.0;
  secondary_voltage 208.0;
  resistance 0.01900;
  reactance 0.01770;
  shunt_resistance 126.58;
  shunt_reactance 22.57;
}
object transformer_configuration {
  name XF1_POLETOP_BN_37p5;
  power_rating 37.50;
  powerA_rating 0.0;
  powerB_rating 37.50;
  powerC_rating 0.0;
  install_type POLETOP;
  connect_type WYE_WYE;
  primary_voltage 13800.0;
  secondary_voltage 208.0;
  resistance 0.01750;
  reactance 0.02120;
  shunt_resistance 142.86;
  shunt_reactance 25.38;
}
object transformer_configuration {
  name XF3_POLETOP_ABCN_45;
  power_rating 45.00;
  powerA_rating 15.00;
  powerB_rating 15.00;
  powerC_rating 15.00;
  install_type POLETOP;
  connect_type WYE_WYE;
  primary_voltage 13800.0;
  secondary_voltage 208.0;
  resistance 0.01750;
  reactance 0.02120;
  shunt_resistance 142.86;
  shunt_reactance 25.38;
}
object transformer_configuration {
  name XF2_POLETOP_ABN_30;
  power_rating 30.00;
  powerA_rating 15.00;
  powerB_rating 15.00;
  powerC_rating 0.0;
  install_type POLETOP;
  connect_type WYE_WYE;
  primary_voltage 13800.0;
  secondary_voltage 208.0;
  resistance 0.01900;
  reactance 0.01770;
  shunt_resistance 126.58;
  shunt_reactance 22.57;
}
object transformer_configuration {
  name XF1_POLETOP_CN_10;
  power_rating 10.00;
  powerA_rating 0.0;
  powerB_rating 0.0;
  powerC_rating 10.00;
  install_type POLETOP;
  connect_type WYE_WYE;
  primary_voltage 13800.0;
  secondary_voltage 208.0;
  resistance 0.01900;
  reactance 0.01770;
  shunt_resistance 126.58;
  shunt_reactance 22.57;
}
object transformer_configuration {
  name XF1_POLETOP_CN_15;
  power_rating 15.00;
  powerA_rating 0.0;
  powerB_rating 0.0;
  powerC_rating 15.00;
  install_type POLETOP;
  connect_type WYE_WYE;
  primary_voltage 13800.0;
  secondary_voltage 208.0;
  resistance 0.01900;
  reactance 0.01770;
  shunt_resistance 126.58;
  shunt_reactance 22.57;
}
object transformer_configuration {
  name XF2_POLETOP_BCN_30;
  power_rating 30.00;
  powerA_rating 0.0;
  powerB_rating 15.00;
  powerC_rating 15.00;
  install_type POLETOP;
  connect_type WYE_WYE;
  primary_voltage 13800.0;
  secondary_voltage 208.0;
  resistance 0.01900;
  reactance 0.01770;
  shunt_resistance 126.58;
  shunt_reactance 22.57;
}
object transformer_configuration {
  name XF1_POLETOP_BN_15;
  power_rating 15.00;
  powerA_rating 0.0;
  powerB_rating 15.00;
  powerC_rating 0.0;
  install_type POLETOP;
  connect_type WYE_WYE;
  primary_voltage 13800.0;
  secondary_voltage 208.0;
  resistance 0.01900;
  reactance 0.01770;
  shunt_resistance 126.58;
  shunt_reactance 22.57;
}
object regulator_configuration {
  name feeder_reg_cfg;
  Control OUTPUT_VOLTAGE;
  band_center 8300;
  band_width 132;
  connect_type WYE_WYE;
  time_delay 30;
  raise_taps 16;
  lower_taps 16;
  regulation 0.10;
  tap_pos_A 0;
  tap_pos_B 0;
  tap_pos_C 0;
}
object regulator_configuration {
  name voltage_reg1_cfg;
  Control OUTPUT_VOLTAGE;
  band_center 8250;
  band_width 131;
  connect_type WYE_WYE;
  time_delay 30;
  raise_taps 16;
  lower_taps 16;
  regulation 0.10;
  tap_pos_A 0;
  tap_pos_B 0;
  tap_pos_C 0;
}
object regulator_configuration {
  name voltage_reg2_cfg;
  Control OUTPUT_VOLTAGE;
  band_center 8300;
  band_width 132;
  connect_type WYE_WYE;
  time_delay 30;
  raise_taps 16;
  lower_taps 16;
  regulation 0.10;
  tap_pos_A 0;
  tap_pos_B 0;
  tap_pos_C 0;
}
object regulator_configuration {
  name voltage_reg3_cfg;
  Control OUTPUT_VOLTAGE;
  band_center 8250;
  band_width 131;
  connect_type WYE_WYE;
  time_delay 30;
  raise_taps 16;
  lower_taps 16;
  regulation 0.10;
  tap_pos_A 0;
  tap_pos_B 0;
  tap_pos_C 0;
}
object overhead_line_conductor {
  name ID_3299;
  rating.summer.continuous 149.0;
  geometric_mean_radius 0.00663 ft;
  resistance 1.50000;
}
object overhead_line_conductor {
  name ID_3300;
  rating.summer.continuous 256.0;
  geometric_mean_radius 0.01200 ft;
  resistance 0.16600;
}
object overhead_line_conductor {
  name ID_3301;
  rating.summer.continuous 878.0;
  geometric_mean_radius 0.03280 ft;
  resistance 0.13100;
}
object overhead_line_conductor {
  name ID_3302;
  rating.summer.continuous 858.0;
  geometric_mean_radius 0.02940 ft;
  resistance 0.16300;
}
object overhead_line_conductor {
  name ID_3303;
  rating.summer.continuous 531.0;
  geometric_mean_radius 0.02240 ft;
  resistance 0.30600;
}
object overhead_line_conductor {
  name ID_3304;
  rating.summer.continuous 230.0;
  geometric_mean_radius 0.00446 ft;
  resistance 1.04100;
}
object overhead_line_conductor {
  name ID_3305;
  rating.summer.continuous 266.0;
  geometric_mean_radius 0.01142 ft;
  resistance 0.95300;
}
object line_spacing {
  name ID_261;
  distance_BN 69.99999999996 in;
}
object line_spacing {
  name ID_262;
  distance_AB 48.0 in;
  distance_BC 48.0 in;
  distance_AC 48.0 in;
  distance_AN 36.0 in;
  distance_BN 36.0 in;
  distance_CN 36.0 in;
}
object line_spacing {
  name ID_263;
  distance_CN 69.99999999996 in;
}
object line_spacing {
  name ID_264;
  distance_AN 360.0 in;
}
object line_spacing {
  name ID_265;
  distance_AB 53.19999999996 in;
  distance_BC 53.19999999996 in;
  distance_AC 53.19999999996 in;
  distance_AN 80.49999999996 in;
  distance_BN 80.49999999996 in;
  distance_CN 80.49999999996 in;
}
object line_spacing {
  name ID_266;
  distance_BN 360.0 in;
}
object line_spacing {
  name ID_267;
  distance_AN 69.99999999996 in;
}
object line_spacing {
  name ID_268;
  distance_AC 12.0 in;
  distance_AN 360.0 in;
  distance_CN 360.0 in;
}
object line_spacing {
  name ID_269;
  distance_AB 12.0 in;
  distance_BC 12.0 in;
  distance_AC 12.0 in;
  distance_AN 360.0 in;
  distance_BN 360.0 in;
  distance_CN 360.0 in;
}
object line_spacing {
  name ID_270;
  distance_AB 60.50000000004 in;
  distance_BC 60.50000000004 in;
  distance_AC 60.50000000004 in;
  distance_AN 84.6 in;
  distance_BN 84.6 in;
  distance_CN 84.6 in;
}
object line_spacing {
  name ID_271;
  distance_CN 360.0 in;
}
object line_spacing {
  name ID_272;
  distance_AC 48.0 in;
  distance_AN 20.79999999996 in;
  distance_CN 20.79999999996 in;
}
object line_spacing {
  name ID_273;
  distance_AB 65.90000000004 in;
  distance_BC 65.90000000004 in;
  distance_AC 65.90000000004 in;
  distance_AN 75.50000000004 in;
  distance_BN 75.50000000004 in;
  distance_CN 75.50000000004 in;
}
object line_spacing {
  name ID_274;
  distance_BN 69.99999999996 in;
}
object line_spacing {
  name ID_275;
  distance_AB 111.99999999996 in;
  distance_AN 19.89999999996 in;
  distance_BN 19.89999999996 in;
}
object line_spacing {
  name ID_276;
  distance_AN 69.99999999996 in;
}
object line_spacing {
  name ID_277;
  distance_AB 60.50000000004 in;
  distance_BC 60.50000000004 in;
  distance_AC 60.50000000004 in;
  distance_AN 114.99999999996 in;
  distance_BN 114.99999999996 in;
  distance_CN 114.99999999996 in;
}
object line_spacing {
  name ID_278;
  distance_AB 65.90000000004 in;
  distance_BC 65.90000000004 in;
  distance_AC 65.90000000004 in;
  distance_AN 85.59999999996 in;
  distance_BN 85.59999999996 in;
  distance_CN 85.59999999996 in;
}
object line_spacing {
  name ID_279;
  distance_CN 69.99999999996 in;
}
object line_spacing {
  name ID_280;
  distance_AB 87.99999999996 in;
  distance_AN 18.6 in;
  distance_BN 18.6 in;
}
object line_spacing {
  name ID_281;
  distance_AB 87.99999999996 in;
  distance_AN 19.2 in;
  distance_BN 19.2 in;
}
object line_spacing {
  name ID_282;
  distance_AB 48.0 in;
  distance_AN 36.0 in;
  distance_BN 36.0 in;
}
object line_spacing {
  name ID_283;
  distance_AC 111.99999999996 in;
  distance_AN 19.89999999996 in;
  distance_CN 19.89999999996 in;
}
object line_spacing {
  name ID_284;
  distance_AB 47.00000000004 in;
  distance_BC 47.00000000004 in;
  distance_AC 47.00000000004 in;
  distance_AN 60.3 in;
  distance_BN 60.3 in;
  distance_CN 60.3 in;
}
object line_spacing {
  name ID_285;
  distance_BC 87.99999999996 in;
  distance_BN 19.2 in;
  distance_CN 19.2 in;
}
object line_spacing {
  name ID_286;
  distance_BC 111.99999999996 in;
  distance_BN 19.89999999996 in;
  distance_CN 19.89999999996 in;
}
object line_spacing {
  name ID_287;
  distance_CN 69.99999999996 in;
}
object line_configuration {
  name ID_204;
  conductor_B ID_3299;
  conductor_N ID_3299;
  spacing ID_261;
}
object line_configuration {
  name ID_205;
  conductor_A ID_3299;
  conductor_B ID_3299;
  conductor_C ID_3299;
  conductor_N ID_3299;
  spacing ID_262;
}
object line_configuration {
  name ID_206;
  conductor_C ID_3300;
  conductor_N ID_3300;
  spacing ID_263;
}
object line_configuration {
  name ID_207;
  conductor_C ID_3299;
  conductor_N ID_3299;
  spacing ID_263;
}
object line_configuration {
  name ID_208;
  conductor_B ID_3300;
  conductor_N ID_3300;
  spacing ID_261;
}
object line_configuration {
  name ID_209;
  conductor_A ID_9676;
  conductor_N ID_9676;
  spacing ID_264;
}
object line_configuration {
  name ID_210;
  conductor_A ID_3299;
  conductor_B ID_3299;
  conductor_C ID_3299;
  conductor_N ID_3299;
  spacing ID_265;
}
object line_configuration {
  name ID_211;
  conductor_B ID_9676;
  conductor_N ID_9676;
  spacing ID_266;
}
object line_configuration {
  name ID_212;
  conductor_A ID_3300;
  conductor_N ID_3300;
  spacing ID_267;
}
object line_configuration {
  name ID_213;
  conductor_A ID_9677;
  conductor_N ID_9677;
  spacing ID_264;
}
object line_configuration {
  name ID_214;
  conductor_A ID_9677;
  conductor_C ID_9677;
  conductor_N ID_9677;
  spacing ID_268;
}
object line_configuration {
  name ID_215;
  conductor_B ID_9677;
  conductor_N ID_9677;
  spacing ID_266;
}
object line_configuration {
  name ID_216;
  conductor_A ID_9677;
  conductor_B ID_9677;
  conductor_C ID_9677;
  conductor_N ID_9677;
  spacing ID_269;
}
object line_configuration {
  name ID_217;
  conductor_A ID_3301;
  conductor_B ID_3301;
  conductor_C ID_3301;
  conductor_N ID_3301;
  spacing ID_270;
}
object line_configuration {
  name ID_218;
  conductor_C ID_9676;
  conductor_N ID_9676;
  spacing ID_271;
}
object line_configuration {
  name ID_219;
  conductor_C ID_9677;
  conductor_N ID_9677;
  spacing ID_271;
}
object line_configuration {
  name ID_220;
  conductor_A ID_3299;
  conductor_N ID_3299;
  spacing ID_267;
}
object line_configuration {
  name ID_221;
  conductor_A ID_3299;
  conductor_C ID_3299;
  conductor_N ID_3299;
  spacing ID_272;
}
object line_configuration {
  name ID_222;
  conductor_A ID_3302;
  conductor_B ID_3302;
  conductor_C ID_3302;
  conductor_N ID_3302;
  spacing ID_273;
}
object line_configuration {
  name ID_223;
  conductor_A ID_3302;
  conductor_B ID_3302;
  conductor_C ID_3302;
  conductor_N ID_3302;
  spacing ID_270;
}
object line_configuration {
  name ID_224;
  conductor_C ID_3303;
  conductor_N ID_3303;
  spacing ID_263;
}
object line_configuration {
  name ID_225;
  conductor_C ID_3299;
  conductor_N ID_3299;
  spacing ID_263;
}
object line_configuration {
  name ID_226;
  conductor_B ID_3300;
  conductor_N ID_3300;
  spacing ID_274;
}
object line_configuration {
  name ID_227;
  conductor_A ID_3300;
  conductor_B ID_3300;
  conductor_C ID_3300;
  conductor_N ID_3300;
  spacing ID_265;
}
object line_configuration {
  name ID_228;
  conductor_A ID_3299;
  conductor_N ID_3299;
  spacing ID_267;
}
object line_configuration {
  name ID_229;
  conductor_B ID_3299;
  conductor_N ID_3299;
  spacing ID_261;
}
object line_configuration {
  name ID_230;
  conductor_B ID_3301;
  conductor_N ID_3301;
  spacing ID_274;
}
object line_configuration {
  name ID_231;
  conductor_A ID_3300;
  conductor_B ID_3300;
  conductor_C ID_3300;
  conductor_N ID_3300;
  spacing ID_273;
}
object line_configuration {
  name ID_232;
  conductor_A ID_3299;
  conductor_B ID_3299;
  conductor_N ID_3299;
  spacing ID_275;
}
object line_configuration {
  name ID_233;
  conductor_A ID_3299;
  conductor_N ID_3299;
  spacing ID_276;
}
object line_configuration {
  name ID_234;
  conductor_A ID_3299;
  conductor_B ID_3299;
  conductor_C ID_3299;
  conductor_N ID_3299;
  spacing ID_273;
}
object line_configuration {
  name ID_235;
  conductor_A ID_3300;
  conductor_B ID_3300;
  conductor_C ID_3300;
  conductor_N ID_3300;
  spacing ID_262;
}
object line_configuration {
  name ID_236;
  conductor_A ID_3300;
  conductor_B ID_3300;
  conductor_C ID_3300;
  conductor_N ID_3300;
  spacing ID_270;
}
object line_configuration {
  name ID_237;
  conductor_A ID_3300;
  conductor_B ID_3300;
  conductor_C ID_3300;
  conductor_N ID_3300;
  spacing ID_277;
}
object line_configuration {
  name ID_238;
  conductor_A ID_3300;
  conductor_B ID_3300;
  conductor_C ID_3300;
  conductor_N ID_3300;
  spacing ID_278;
}
object line_configuration {
  name ID_239;
  conductor_C ID_3300;
  conductor_N ID_3300;
  spacing ID_279;
}
object line_configuration {
  name ID_240;
  conductor_C ID_3299;
  conductor_N ID_3299;
  spacing ID_279;
}
object line_configuration {
  name ID_241;
  conductor_A ID_3304;
  conductor_B ID_3304;
  conductor_N ID_3304;
  spacing ID_280;
}
object line_configuration {
  name ID_242;
  conductor_A ID_3300;
  conductor_B ID_3300;
  conductor_N ID_3300;
  spacing ID_281;
}
object line_configuration {
  name ID_243;
  conductor_A ID_3300;
  conductor_B ID_3300;
  conductor_N ID_3300;
  spacing ID_282;
}
object line_configuration {
  name ID_244;
  conductor_A ID_3304;
  conductor_B ID_3304;
  conductor_N ID_3304;
  spacing ID_281;
}
object line_configuration {
  name ID_245;
  conductor_B ID_3304;
  conductor_N ID_3304;
  spacing ID_274;
}
object line_configuration {
  name ID_246;
  conductor_B ID_3304;
  conductor_N ID_3304;
  spacing ID_261;
}
object line_configuration {
  name ID_247;
  conductor_B ID_3299;
  conductor_N ID_3299;
  spacing ID_274;
}
object line_configuration {
  name ID_248;
  conductor_A ID_3300;
  conductor_C ID_3300;
  conductor_N ID_3300;
  spacing ID_272;
}
object line_configuration {
  name ID_249;
  conductor_A ID_3300;
  conductor_C ID_3300;
  conductor_N ID_3300;
  spacing ID_283;
}
object line_configuration {
  name ID_250;
  conductor_A ID_3299;
  conductor_N ID_3299;
  spacing ID_276;
}
object line_configuration {
  name ID_251;
  conductor_A ID_3300;
  conductor_N ID_3300;
  spacing ID_276;
}
object line_configuration {
  name ID_252;
  conductor_A ID_3303;
  conductor_B ID_3303;
  conductor_C ID_3303;
  conductor_N ID_3303;
  spacing ID_284;
}
object line_configuration {
  name ID_253;
  conductor_B ID_3300;
  conductor_C ID_3300;
  conductor_N ID_3300;
  spacing ID_285;
}
object line_configuration {
  name ID_254;
  conductor_B ID_3300;
  conductor_C ID_3300;
  conductor_N ID_3300;
  spacing ID_286;
}
object line_configuration {
  name ID_255;
  conductor_C ID_3302;
  conductor_N ID_3302;
  spacing ID_263;
}
object line_configuration {
  name ID_256;
  conductor_A ID_3299;
  conductor_B ID_3299;
  conductor_C ID_3299;
  conductor_N ID_3299;
  spacing ID_270;
}
object line_configuration {
  name ID_257;
  conductor_A ID_3301;
  conductor_N ID_3301;
  spacing ID_276;
}
object line_configuration {
  name ID_258;
  conductor_C ID_3305;
  conductor_N ID_3305;
  spacing ID_287;
}
object line_configuration {
  name ID_259;
  conductor_C ID_3299;
  conductor_N ID_3299;
  spacing ID_287;
}
object line_configuration {
  name ID_260;
  conductor_A ID_9676;
  conductor_B ID_9676;
  conductor_C ID_9676;
  conductor_N ID_9676;
  spacing ID_269;
}
object triplex_line_conductor {
  name triplex_4/0_aa;
  resistance 0.48;
  geometric_mean_radius 0.0158;
  rating.summer.continuous 1000.0;
  rating.summer.emergency 1000.0;
  rating.winter.continuous 1000.0;
  rating.winter.emergency 1000.0;
}
object triplex_line_configuration {
  name ID_4810;
  conductor_1 triplex_4/0_aa;
  conductor_2 triplex_4/0_aa;
  conductor_N triplex_4/0_aa;
  insulation_thickness 0.08;
  diameter 0.522;
}
object underground_line_conductor {
  name ID_9676;
  rating.summer.continuous 142.0;
  outer_diameter 1.27;
  conductor_gmr 0.01142 ft;
  conductor_diameter 0.362;
  conductor_resistance 0.88704;
  neutral_gmr 0.00208 ft;
  neutral_resistance 14.87;
  neutral_diameter 0.0641;
  neutral_strands 16.0;
  insulation_relative_permitivitty 2.3;
}
object underground_line_conductor {
  name ID_9677;
  rating.summer.continuous 112.0;
  outer_diameter 1.09;
  conductor_gmr 0.0088 ft;
  conductor_diameter 0.292;
  conductor_resistance 1.38336;
  neutral_gmr 0.00208 ft;
  neutral_resistance 14.87;
  neutral_diameter 0.0641;
  neutral_strands 6.0;
  insulation_relative_permitivitty 2.3;
}
object fuse {
  name R5_12_47_3_fuse_1;
// downstream 8.46 kva on AS
  phases AN;
  from R5_12_47_3_node_688;
  to R5_12_47_3_node_11;
  mean_replacement_time 3600;
  current_limit 40;
  status CLOSED;
}
object fuse {
  name R5_12_47_3_fuse_2;
// downstream 14.69 kva on CS
  phases CN;
  from R5_12_47_3_node_528;
  to R5_12_47_3_node_37;
  mean_replacement_time 3600;
  current_limit 40;
  status CLOSED;
}
object fuse {
  name R5_12_47_3_fuse_3;
// downstream 63.96 kva on CS
  phases CN;
  from R5_12_47_3_node_1178;
  to R5_12_47_3_node_40;
  mean_replacement_time 3600;
  current_limit 40;
  status CLOSED;
}
object fuse {
  name R5_12_47_3_fuse_4;
// downstream 19.99 kva on CS
  phases CN;
  from R5_12_47_3_node_1160;
  to R5_12_47_3_node_64;
  mean_replacement_time 3600;
  current_limit 40;
  status CLOSED;
}
object fuse {
  name R5_12_47_3_fuse_5;
// downstream 11.05 kva on CS
  phases CN;
  from R5_12_47_3_node_1209;
  to R5_12_47_3_node_67;
  mean_replacement_time 3600;
  current_limit 40;
  status CLOSED;
}
object fuse {
  name R5_12_47_3_fuse_6;
// downstream 76.36 kva on CS
  phases CN;
  from R5_12_47_3_node_158;
  to R5_12_47_3_node_69;
  mean_replacement_time 3600;
  current_limit 40;
  status CLOSED;
}
object fuse {
  name R5_12_47_3_fuse_7;
// downstream 16.65 kva on CS
  phases CN;
  from R5_12_47_3_node_747;
  to R5_12_47_3_node_80;
  mean_replacement_time 3600;
  current_limit 40;
  status CLOSED;
}
object fuse {
  name R5_12_47_3_fuse_8;
// downstream 64.06 kva on BS
  phases BN;
  from R5_12_47_3_node_208;
  to R5_12_47_3_node_84;
  mean_replacement_time 3600;
  current_limit 40;
  status CLOSED;
}
object fuse {
  name R5_12_47_3_fuse_9;
// downstream 8.46 kva on AS
  phases AN;
  from R5_12_47_3_node_667;
  to R5_12_47_3_node_102;
  mean_replacement_time 3600;
  current_limit 40;
  status CLOSED;
}
object fuse {
  name R5_12_47_3_fuse_10;
// downstream 18.87 kva on ABC
  phases ABCN;
  from R5_12_47_3_node_803;
  to R5_12_47_3_node_103;
  mean_replacement_time 3600;
  current_limit 40;
  status CLOSED;
}
object fuse {
  name R5_12_47_3_fuse_11;
// downstream 8.27 kva on AS
  phases AN;
  from R5_12_47_3_node_922;
  to R5_12_47_3_node_104;
  mean_replacement_time 3600;
  current_limit 40;
  status CLOSED;
}
object fuse {
  name R5_12_47_3_fuse_12;
// downstream 9.04 kva on CS
  phases CN;
  from R5_12_47_3_node_981;
  to R5_12_47_3_node_105;
  mean_replacement_time 3600;
  current_limit 40;
  status CLOSED;
}
object fuse {
  name R5_12_47_3_fuse_13;
// downstream 6.33 kva on BS
  phases BN;
  from R5_12_47_3_node_1009;
  to R5_12_47_3_node_106;
  mean_replacement_time 3600;
  current_limit 40;
  status CLOSED;
}
object fuse {
  name R5_12_47_3_fuse_14;
// downstream 12.79 kva on AS
  phases AN;
  from R5_12_47_3_node_852;
  to R5_12_47_3_node_107;
  mean_replacement_time 3600;
  current_limit 40;
  status CLOSED;
}
object fuse {
  name R5_12_47_3_fuse_15;
// downstream 10.47 kva on CS
  phases CN;
  from R5_12_47_3_node_939;
  to R5_12_47_3_node_108;
  mean_replacement_time 3600;
  current_limit 40;
  status CLOSED;
}
object fuse {
  name R5_12_47_3_fuse_16;
// downstream 12.43 kva on BS
  phases BN;
  from R5_12_47_3_node_1081;
  to R5_12_47_3_node_109;
  mean_replacement_time 3600;
  current_limit 40;
  status CLOSED;
}
object fuse {
  name R5_12_47_3_fuse_17;
// downstream 12.54 kva on BS
  phases BN;
  from R5_12_47_3_node_1105;
  to R5_12_47_3_node_110;
  mean_replacement_time 3600;
  current_limit 40;
  status CLOSED;
}
object fuse {
  name R5_12_47_3_fuse_18;
// downstream 6.84 kva on CS
  phases CN;
  from R5_12_47_3_node_1133;
  to R5_12_47_3_node_111;
  mean_replacement_time 3600;
  current_limit 40;
  status CLOSED;
}
object fuse {
  name R5_12_47_3_fuse_19;
// downstream 3.40 kva on CS
  phases CN;
  from R5_12_47_3_node_1144;
  to R5_12_47_3_node_112;
  mean_replacement_time 3600;
  current_limit 40;
  status CLOSED;
}
object fuse {
  name R5_12_47_3_fuse_20;
// downstream 12.57 kva on B
  phases BN;
  from R5_12_47_3_node_1091;
  to R5_12_47_3_node_113;
  mean_replacement_time 3600;
  current_limit 40;
  status CLOSED;
}
object fuse {
  name R5_12_47_3_fuse_21;
// downstream 13.24 kva on BS
  phases BN;
  from R5_12_47_3_node_1155;
  to R5_12_47_3_node_114;
  mean_replacement_time 3600;
  current_limit 40;
  status CLOSED;
}
object fuse {
  name R5_12_47_3_fuse_22;
// downstream 8.87 kva on AS
  phases AN;
  from R5_12_47_3_node_1197;
  to R5_12_47_3_node_116;
  mean_replacement_time 3600;
  current_limit 40;
  status CLOSED;
}
object fuse {
  name R5_12_47_3_fuse_23;
// downstream 12.43 kva on AS
  phases AN;
  from R5_12_47_3_node_1225;
  to R5_12_47_3_node_117;
  mean_replacement_time 3600;
  current_limit 40;
  status CLOSED;
}
object fuse {
  name R5_12_47_3_fuse_24;
// downstream 8.15 kva on AS
  phases AN;
  from R5_12_47_3_node_1227;
  to R5_12_47_3_node_118;
  mean_replacement_time 3600;
  current_limit 40;
  status CLOSED;
}
object fuse {
  name R5_12_47_3_fuse_25;
// downstream 16.16 kva on AS
  phases AN;
  from R5_12_47_3_node_539;
  to R5_12_47_3_node_119;
  mean_replacement_time 3600;
  current_limit 40;
  status CLOSED;
}
object fuse {
  name R5_12_47_3_fuse_26;
// downstream 36.89 kva on CS
  phases CN;
  from R5_12_47_3_node_1235;
  to R5_12_47_3_node_120;
  mean_replacement_time 3600;
  current_limit 40;
  status CLOSED;
}
object fuse {
  name R5_12_47_3_fuse_27;
// downstream 9.55 kva on CS
  phases CN;
  from R5_12_47_3_node_1236;
  to R5_12_47_3_node_121;
  mean_replacement_time 3600;
  current_limit 40;
  status CLOSED;
}
object fuse {
  name R5_12_47_3_fuse_28;
// downstream 22.36 kva on BS
  phases BN;
  from R5_12_47_3_node_1252;
  to R5_12_47_3_node_122;
  mean_replacement_time 3600;
  current_limit 40;
  status CLOSED;
}
object fuse {
  name R5_12_47_3_fuse_29;
// downstream 22.36 kva on BS
  phases BN;
  from R5_12_47_3_node_1218;
  to R5_12_47_3_node_123;
  mean_replacement_time 3600;
  current_limit 40;
  status CLOSED;
}
object fuse {
  name R5_12_47_3_fuse_30;
// downstream 17.21 kva on CS
  phases CN;
  from R5_12_47_3_node_1153;
  to R5_12_47_3_node_134;
  mean_replacement_time 3600;
  current_limit 40;
  status CLOSED;
}
object fuse {
  name R5_12_47_3_fuse_31;
// downstream 5.06 kva on CS
  phases CN;
  from R5_12_47_3_node_141;
  to R5_12_47_3_node_140;
  mean_replacement_time 3600;
  current_limit 40;
  status CLOSED;
}
object fuse {
  name R5_12_47_3_fuse_32;
// downstream 6.17 kva on BS
  phases BN;
  from R5_12_47_3_node_144;
  to R5_12_47_3_node_143;
  mean_replacement_time 3600;
  current_limit 40;
  status CLOSED;
}
object fuse {
  name R5_12_47_3_fuse_33;
// downstream 14.09 kva on CS
  phases CN;
  from R5_12_47_3_node_145;
  to R5_12_47_3_node_146;
  mean_replacement_time 3600;
  current_limit 40;
  status CLOSED;
}
object fuse {
  name R5_12_47_3_fuse_34;
// downstream 16.57 kva on CS
  phases CN;
  from R5_12_47_3_node_1216;
  to R5_12_47_3_node_150;
  mean_replacement_time 3600;
  current_limit 40;
  status CLOSED;
}
object fuse {
  name R5_12_47_3_fuse_35;
// downstream 26.73 kva on BS
  phases BN;
  from R5_12_47_3_node_155;
  to R5_12_47_3_node_156;
  mean_replacement_time 3600;
  current_limit 40;
  status CLOSED;
}
object fuse {
  name R5_12_47_3_fuse_36;
// downstream 18.34 kva on AS
  phases AN;
  from R5_12_47_3_node_159;
  to R5_12_47_3_node_160;
  mean_replacement_time 3600;
  current_limit 40;
  status CLOSED;
}
object fuse {
  name R5_12_47_3_fuse_37;
// downstream 88.13 kva on ABCS
  phases ABCN;
  from R5_12_47_3_node_161;
  to R5_12_47_3_node_162;
  mean_replacement_time 3600;
  current_limit 40;
  status CLOSED;
}
object fuse {
  name R5_12_47_3_fuse_38;
// downstream 75.42 kva on BS
  phases BN;
  from R5_12_47_3_node_165;
  to R5_12_47_3_node_163;
  mean_replacement_time 3600;
  current_limit 40;
  status CLOSED;
}
object fuse {
  name R5_12_47_3_fuse_39;
// downstream 51.30 kva on BS
  phases BN;
  from R5_12_47_3_node_164;
  to R5_12_47_3_node_166;
  mean_replacement_time 3600;
  current_limit 40;
  status CLOSED;
}
object fuse {
  name R5_12_47_3_fuse_40;
// downstream 6.23 kva on AS
  phases AN;
  from R5_12_47_3_node_172;
  to R5_12_47_3_node_173;
  mean_replacement_time 3600;
  current_limit 40;
  status CLOSED;
}
object fuse {
  name R5_12_47_3_fuse_41;
// downstream 20.48 kva on AS
  phases AN;
  from R5_12_47_3_node_927;
  to R5_12_47_3_node_174;
  mean_replacement_time 3600;
  current_limit 40;
  status CLOSED;
}
object fuse {
  name R5_12_47_3_fuse_42;
// downstream 22.02 kva on BS
  phases BN;
  from R5_12_47_3_node_169;
  to R5_12_47_3_node_178;
  mean_replacement_time 3600;
  current_limit 40;
  status CLOSED;
}
object fuse {
  name R5_12_47_3_fuse_43;
// downstream 5.15 kva on BS
  phases BN;
  from R5_12_47_3_node_183;
  to R5_12_47_3_node_181;
  mean_replacement_time 3600;
  current_limit 40;
  status CLOSED;
}
object fuse {
  name R5_12_47_3_fuse_44;
// downstream 25.29 kva on BS
  phases BN;
  from R5_12_47_3_node_1003;
  to R5_12_47_3_node_187;
  mean_replacement_time 3600;
  current_limit 40;
  status CLOSED;
}
object fuse {
  name R5_12_47_3_fuse_45;
// downstream 22.36 kva on BS
  phases BN;
  from R5_12_47_3_node_187;
  to R5_12_47_3_node_188;
  mean_replacement_time 3600;
  current_limit 40;
  status CLOSED;
}
object fuse {
  name R5_12_47_3_fuse_46;
// downstream 5.06 kva on CS
  phases CN;
  from R5_12_47_3_node_193;
  to R5_12_47_3_node_192;
  mean_replacement_time 3600;
  current_limit 40;
  status CLOSED;
}
object fuse {
  name R5_12_47_3_fuse_47;
// downstream 5.06 kva on CS
  phases CN;
  from R5_12_47_3_node_176;
  to R5_12_47_3_node_193;
  mean_replacement_time 3600;
  current_limit 40;
  status CLOSED;
}
object fuse {
  name R5_12_47_3_fuse_48;
// downstream 22.36 kva on B
  phases BN;
  from R5_12_47_3_node_199;
  to R5_12_47_3_node_198;
  mean_replacement_time 3600;
  current_limit 40;
  status CLOSED;
}
object fuse {
  name R5_12_47_3_fuse_49;
// downstream 29.07 kva on BS
  phases BN;
  from R5_12_47_3_node_190;
  to R5_12_47_3_node_199;
  mean_replacement_time 3600;
  current_limit 40;
  status CLOSED;
}
object fuse {
  name R5_12_47_3_fuse_50;
// downstream 3.15 kva on BS
  phases BN;
  from R5_12_47_3_node_815;
  to R5_12_47_3_node_201;
  mean_replacement_time 3600;
  current_limit 40;
  status CLOSED;
}
object fuse {
  name R5_12_47_3_fuse_51;
// downstream 101.58 kva on BS
  phases BN;
  from R5_12_47_3_node_202;
  to R5_12_47_3_node_204;
  mean_replacement_time 3600;
  current_limit 40;
  status CLOSED;
}
object fuse {
  name R5_12_47_3_fuse_52;
// downstream 98.95 kva on AS
  phases AN;
  from R5_12_47_3_node_1113;
  to R5_12_47_3_node_210;
  mean_replacement_time 3600;
  current_limit 40;
  status CLOSED;
}
object fuse {
  name R5_12_47_3_fuse_53;
// downstream 8.01 kva on AS
  phases AN;
  from R5_12_47_3_node_222;
  to R5_12_47_3_node_221;
  mean_replacement_time 3600;
  current_limit 40;
  status CLOSED;
}
object fuse {
  name R5_12_47_3_fuse_54;
// downstream 26.39 kva on BS
  phases BN;
  from R5_12_47_3_node_490;
  to R5_12_47_3_node_229;
  mean_replacement_time 3600;
  current_limit 40;
  status CLOSED;
}
object fuse {
  name R5_12_47_3_fuse_55;
// downstream 18.82 kva on BS
  phases BN;
  from R5_12_47_3_node_506;
  to R5_12_47_3_node_233;
  mean_replacement_time 3600;
  current_limit 40;
  status CLOSED;
}
object fuse {
  name R5_12_47_3_fuse_56;
// downstream 11.00 kva on AS
  phases AN;
  from R5_12_47_3_node_240;
  to R5_12_47_3_node_239;
  mean_replacement_time 3600;
  current_limit 40;
  status CLOSED;
}
object fuse {
  name R5_12_47_3_fuse_57;
// downstream 86.45 kva on BS
  phases BN;
  from R5_12_47_3_node_206;
  to R5_12_47_3_node_243;
  mean_replacement_time 3600;
  current_limit 40;
  status CLOSED;
}
object fuse {
  name R5_12_47_3_fuse_58;
// downstream 3.45 kva on BS
  phases BN;
  from R5_12_47_3_node_246;
  to R5_12_47_3_node_244;
  mean_replacement_time 3600;
  current_limit 40;
  status CLOSED;
}
object fuse {
  name R5_12_47_3_fuse_59;
// downstream 13.61 kva on CS
  phases CN;
  from R5_12_47_3_node_871;
  to R5_12_47_3_node_255;
  mean_replacement_time 3600;
  current_limit 40;
  status CLOSED;
}
object fuse {
  name R5_12_47_3_fuse_60;
// downstream 20.26 kva on BS
  phases BN;
  from R5_12_47_3_node_219;
  to R5_12_47_3_node_258;
  mean_replacement_time 3600;
  current_limit 40;
  status CLOSED;
}
object fuse {
  name R5_12_47_3_fuse_61;
// downstream 6.71 kva on BS
  phases BN;
  from R5_12_47_3_node_263;
  to R5_12_47_3_node_273;
  mean_replacement_time 3600;
  current_limit 40;
  status CLOSED;
}
object fuse {
  name R5_12_47_3_fuse_62;
// downstream 124.06 kva on BS
  phases BN;
  from R5_12_47_3_node_271;
  to R5_12_47_3_node_275;
  mean_replacement_time 3600;
  current_limit 40;
  status CLOSED;
}
object fuse {
  name R5_12_47_3_fuse_63;
// downstream 7.72 kva on BS
  phases BN;
  from R5_12_47_3_node_285;
  to R5_12_47_3_node_286;
  mean_replacement_time 3600;
  current_limit 40;
  status CLOSED;
}
object fuse {
  name R5_12_47_3_fuse_64;
// downstream 12.88 kva on CS
  phases CN;
  from R5_12_47_3_node_292;
  to R5_12_47_3_node_293;
  mean_replacement_time 3600;
  current_limit 40;
  status CLOSED;
}
object fuse {
  name R5_12_47_3_fuse_65;
// downstream 5.14 kva on BS
  phases BN;
  from R5_12_47_3_node_296;
  to R5_12_47_3_node_297;
  mean_replacement_time 3600;
  current_limit 40;
  status CLOSED;
}
object fuse {
  name R5_12_47_3_fuse_66;
// downstream 40.11 kva on AS
  phases AN;
  from R5_12_47_3_node_302;
  to R5_12_47_3_node_306;
  mean_replacement_time 3600;
  current_limit 40;
  status CLOSED;
}
object fuse {
  name R5_12_47_3_fuse_67;
// downstream 9.09 kva on CS
  phases CN;
  from R5_12_47_3_node_308;
  to R5_12_47_3_node_309;
  mean_replacement_time 3600;
  current_limit 40;
  status CLOSED;
}
object fuse {
  name R5_12_47_3_fuse_68;
// downstream 43.78 kva on CS
  phases CN;
  from R5_12_47_3_node_315;
  to R5_12_47_3_node_312;
  mean_replacement_time 3600;
  current_limit 40;
  status CLOSED;
}
object fuse {
  name R5_12_47_3_fuse_69;
// downstream 59.49 kva on BS
  phases BN;
  from R5_12_47_3_node_325;
  to R5_12_47_3_node_322;
  mean_replacement_time 3600;
  current_limit 40;
  status CLOSED;
}
object fuse {
  name R5_12_47_3_fuse_70;
// downstream 26.10 kva on AS
  phases AN;
  from R5_12_47_3_node_331;
  to R5_12_47_3_node_329;
  mean_replacement_time 3600;
  current_limit 40;
  status CLOSED;
}
object fuse {
  name R5_12_47_3_fuse_71;
// downstream 24.38 kva on BS
  phases BN;
  from R5_12_47_3_node_335;
  to R5_12_47_3_node_332;
  mean_replacement_time 3600;
  current_limit 40;
  status CLOSED;
}
object fuse {
  name R5_12_47_3_fuse_72;
// downstream 5.68 kva on AS
  phases AN;
  from R5_12_47_3_node_340;
  to R5_12_47_3_node_341;
  mean_replacement_time 3600;
  current_limit 40;
  status CLOSED;
}
object fuse {
  name R5_12_47_3_fuse_73;
// downstream 24.67 kva on CS
  phases CN;
  from R5_12_47_3_node_304;
  to R5_12_47_3_node_352;
  mean_replacement_time 3600;
  current_limit 40;
  status CLOSED;
}
object fuse {
  name R5_12_47_3_fuse_74;
// downstream 6.31 kva on CS
  phases CN;
  from R5_12_47_3_node_364;
  to R5_12_47_3_node_365;
  mean_replacement_time 3600;
  current_limit 40;
  status CLOSED;
}
object fuse {
  name R5_12_47_3_fuse_75;
// downstream 19.23 kva on BS
  phases BN;
  from R5_12_47_3_node_370;
  to R5_12_47_3_node_371;
  mean_replacement_time 3600;
  current_limit 40;
  status CLOSED;
}
object fuse {
  name R5_12_47_3_fuse_76;
// downstream 6.31 kva on AS
  phases AN;
  from R5_12_47_3_node_248;
  to R5_12_47_3_node_373;
  mean_replacement_time 3600;
  current_limit 40;
  status CLOSED;
}
object fuse {
  name R5_12_47_3_fuse_77;
// downstream 198.14 kva on CS
  phases CN;
  from R5_12_47_3_node_385;
  to R5_12_47_3_node_388;
  mean_replacement_time 3600;
  current_limit 65;
  status CLOSED;
}
object fuse {
  name R5_12_47_3_fuse_78;
// downstream 113.69 kva on AS
  phases AN;
  from R5_12_47_3_node_406;
  to R5_12_47_3_node_407;
  mean_replacement_time 3600;
  current_limit 40;
  status CLOSED;
}
object fuse {
  name R5_12_47_3_fuse_79;
// downstream 5.55 kva on AS
  phases AN;
  from R5_12_47_3_node_408;
  to R5_12_47_3_node_409;
  mean_replacement_time 3600;
  current_limit 40;
  status CLOSED;
}
object fuse {
  name R5_12_47_3_fuse_80;
// downstream 6.71 kva on CS
  phases CN;
  from R5_12_47_3_node_418;
  to R5_12_47_3_node_419;
  mean_replacement_time 3600;
  current_limit 40;
  status CLOSED;
}
object fuse {
  name R5_12_47_3_fuse_81;
// downstream 39.90 kva on CS
  phases CN;
  from R5_12_47_3_node_439;
  to R5_12_47_3_node_437;
  mean_replacement_time 3600;
  current_limit 40;
  status CLOSED;
}
object fuse {
  name R5_12_47_3_fuse_82;
// downstream 9.90 kva on CS
  phases CN;
  from R5_12_47_3_node_503;
  to R5_12_47_3_node_504;
  mean_replacement_time 3600;
  current_limit 40;
  status CLOSED;
}
object fuse {
  name R5_12_47_3_fuse_83;
// downstream 1.57 kva on AS
  phases AN;
  from R5_12_47_3_node_509;
  to R5_12_47_3_node_510;
  mean_replacement_time 3600;
  current_limit 40;
  status CLOSED;
}
object fuse {
  name R5_12_47_3_fuse_84;
// downstream 33.29 kva on CS
  phases CN;
  from R5_12_47_3_node_508;
  to R5_12_47_3_node_533;
  mean_replacement_time 3600;
  current_limit 40;
  status CLOSED;
}
object fuse {
  name R5_12_47_3_fuse_85;
// downstream 7.78 kva on AS
  phases AN;
  from R5_12_47_3_node_523;
  to R5_12_47_3_node_535;
  mean_replacement_time 3600;
  current_limit 40;
  status CLOSED;
}
object fuse {
  name R5_12_47_3_fuse_86;
// downstream 26.74 kva on BS
  phases BN;
  from R5_12_47_3_node_586;
  to R5_12_47_3_node_540;
  mean_replacement_time 3600;
  current_limit 40;
  status CLOSED;
}
object fuse {
  name R5_12_47_3_fuse_87;
// downstream 7.92 kva on AS
  phases AN;
  from R5_12_47_3_node_545;
  to R5_12_47_3_node_544;
  mean_replacement_time 3600;
  current_limit 40;
  status CLOSED;
}
object fuse {
  name R5_12_47_3_fuse_88;
// downstream 48.18 kva on BS
  phases BN;
  from R5_12_47_3_node_573;
  to R5_12_47_3_node_574;
  mean_replacement_time 3600;
  current_limit 40;
  status CLOSED;
}
object fuse {
  name R5_12_47_3_fuse_89;
// downstream 53.28 kva on BS
  phases BN;
  from R5_12_47_3_node_1196;
  to R5_12_47_3_node_581;
  mean_replacement_time 3600;
  current_limit 40;
  status CLOSED;
}
object fuse {
  name R5_12_47_3_fuse_90;
// downstream 91.01 kva on AS
  phases AN;
  from R5_12_47_3_node_592;
  to R5_12_47_3_node_598;
  mean_replacement_time 3600;
  current_limit 40;
  status CLOSED;
}
object fuse {
  name R5_12_47_3_fuse_91;
// downstream 19.84 kva on AS
  phases AN;
  from R5_12_47_3_node_642;
  to R5_12_47_3_node_639;
  mean_replacement_time 3600;
  current_limit 40;
  status CLOSED;
}
object fuse {
  name R5_12_47_3_fuse_92;
// downstream 96.36 kva on BS
  phases BN;
  from R5_12_47_3_node_652;
  to R5_12_47_3_node_650;
  mean_replacement_time 3600;
  current_limit 40;
  status CLOSED;
}
object fuse {
  name R5_12_47_3_fuse_93;
// downstream 7.76 kva on BS
  phases BN;
  from R5_12_47_3_node_658;
  to R5_12_47_3_node_656;
  mean_replacement_time 3600;
  current_limit 40;
  status CLOSED;
}
object fuse {
  name R5_12_47_3_fuse_94;
// downstream 48.43 kva on AS
  phases AN;
  from R5_12_47_3_node_1065;
  to R5_12_47_3_node_661;
  mean_replacement_time 3600;
  current_limit 40;
  status CLOSED;
}
object fuse {
  name R5_12_47_3_fuse_95;
// downstream 8.46 kva on AS
  phases AN;
  from R5_12_47_3_node_694;
  to R5_12_47_3_node_667;
  mean_replacement_time 3600;
  current_limit 40;
  status CLOSED;
}
object fuse {
  name R5_12_47_3_fuse_96;
// downstream 1.61 kva on CS
  phases CN;
  from R5_12_47_3_node_704;
  to R5_12_47_3_node_705;
  mean_replacement_time 3600;
  current_limit 40;
  status CLOSED;
}
object fuse {
  name R5_12_47_3_fuse_97;
// downstream 6.31 kva on CS
  phases CN;
  from R5_12_47_3_node_1101;
  to R5_12_47_3_node_716;
  mean_replacement_time 3600;
  current_limit 40;
  status CLOSED;
}
object fuse {
  name R5_12_47_3_fuse_98;
// downstream 4.57 kva on CS
  phases CN;
  from R5_12_47_3_node_723;
  to R5_12_47_3_node_724;
  mean_replacement_time 3600;
  current_limit 40;
  status CLOSED;
}
object fuse {
  name R5_12_47_3_fuse_99;
// downstream 71.72 kva on BS
  phases BN;
  from R5_12_47_3_node_740;
  to R5_12_47_3_node_737;
  mean_replacement_time 3600;
  current_limit 40;
  status CLOSED;
}
object fuse {
  name R5_12_47_3_fuse_100;
// downstream 8.15 kva on AS
  phases AN;
  from R5_12_47_3_node_746;
  to R5_12_47_3_node_743;
  mean_replacement_time 3600;
  current_limit 40;
  status CLOSED;
}
object fuse {
  name R5_12_47_3_fuse_101;
// downstream 13.33 kva on AS
  phases AN;
  from R5_12_47_3_node_750;
  to R5_12_47_3_node_751;
  mean_replacement_time 3600;
  current_limit 40;
  status CLOSED;
}
object fuse {
  name R5_12_47_3_fuse_102;
// downstream 94.24 kva on CS
  phases CN;
  from R5_12_47_3_node_767;
  to R5_12_47_3_node_765;
  mean_replacement_time 3600;
  current_limit 40;
  status CLOSED;
}
object fuse {
  name R5_12_47_3_fuse_103;
// downstream 34.99 kva on AS
  phases AN;
  from R5_12_47_3_node_777;
  to R5_12_47_3_node_778;
  mean_replacement_time 3600;
  current_limit 40;
  status CLOSED;
}
object fuse {
  name R5_12_47_3_fuse_104;
// downstream 4.02 kva on CS
  phases CN;
  from R5_12_47_3_node_784;
  to R5_12_47_3_node_783;
  mean_replacement_time 3600;
  current_limit 40;
  status CLOSED;
}
object fuse {
  name R5_12_47_3_fuse_105;
// downstream 11.18 kva on CS
  phases CN;
  from R5_12_47_3_node_786;
  to R5_12_47_3_node_785;
  mean_replacement_time 3600;
  current_limit 40;
  status CLOSED;
}
object fuse {
  name R5_12_47_3_fuse_106;
// downstream 7.23 kva on AS
  phases AN;
  from R5_12_47_3_node_788;
  to R5_12_47_3_node_787;
  mean_replacement_time 3600;
  current_limit 40;
  status CLOSED;
}
object fuse {
  name R5_12_47_3_fuse_107;
// downstream 3.22 kva on CS
  phases CN;
  from R5_12_47_3_node_250;
  to R5_12_47_3_node_804;
  mean_replacement_time 3600;
  current_limit 40;
  status CLOSED;
}
object fuse {
  name R5_12_47_3_fuse_108;
// downstream 6.84 kva on CS
  phases CN;
  from R5_12_47_3_node_807;
  to R5_12_47_3_node_809;
  mean_replacement_time 3600;
  current_limit 40;
  status CLOSED;
}
object fuse {
  name R5_12_47_3_fuse_109;
// downstream 27.13 kva on CS
  phases CN;
  from R5_12_47_3_node_776;
  to R5_12_47_3_node_811;
  mean_replacement_time 3600;
  current_limit 40;
  status CLOSED;
}
object fuse {
  name R5_12_47_3_fuse_110;
// downstream 58.80 kva on CS
  phases CN;
  from R5_12_47_3_node_912;
  to R5_12_47_3_node_849;
  mean_replacement_time 3600;
  current_limit 40;
  status CLOSED;
}
object fuse {
  name R5_12_47_3_fuse_111;
// downstream 9.98 kva on AS
  phases AN;
  from R5_12_47_3_node_856;
  to R5_12_47_3_node_857;
  mean_replacement_time 3600;
  current_limit 40;
  status CLOSED;
}
object fuse {
  name R5_12_47_3_fuse_112;
// downstream 0.89 kva on AS
  phases AN;
  from R5_12_47_3_node_843;
  to R5_12_47_3_node_859;
  mean_replacement_time 3600;
  current_limit 40;
  status CLOSED;
}
object fuse {
  name R5_12_47_3_fuse_113;
// downstream 46.16 kva on CS
  phases CN;
  from R5_12_47_3_node_865;
  to R5_12_47_3_node_867;
  mean_replacement_time 3600;
  current_limit 40;
  status CLOSED;
}
object fuse {
  name R5_12_47_3_fuse_114;
// downstream 17.10 kva on BS
  phases BN;
  from R5_12_47_3_node_903;
  to R5_12_47_3_node_884;
  mean_replacement_time 3600;
  current_limit 40;
  status CLOSED;
}
object fuse {
  name R5_12_47_3_fuse_115;
// downstream 7.93 kva on BS
  phases BN;
  from R5_12_47_3_node_888;
  to R5_12_47_3_node_890;
  mean_replacement_time 3600;
  current_limit 40;
  status CLOSED;
}
object fuse {
  name R5_12_47_3_fuse_116;
// downstream 49.26 kva on AS
  phases AN;
  from R5_12_47_3_node_916;
  to R5_12_47_3_node_911;
  mean_replacement_time 3600;
  current_limit 40;
  status CLOSED;
}
object fuse {
  name R5_12_47_3_fuse_117;
// downstream 68.04 kva on AS
  phases AN;
  from R5_12_47_3_node_920;
  to R5_12_47_3_node_917;
  mean_replacement_time 3600;
  current_limit 40;
  status CLOSED;
}
object fuse {
  name R5_12_47_3_fuse_118;
// downstream 17.89 kva on CS
  phases CN;
  from R5_12_47_3_node_924;
  to R5_12_47_3_node_925;
  mean_replacement_time 3600;
  current_limit 40;
  status CLOSED;
}
object fuse {
  name R5_12_47_3_fuse_119;
// downstream 6.53 kva on CS
  phases CN;
  from R5_12_47_3_node_937;
  to R5_12_47_3_node_938;
  mean_replacement_time 3600;
  current_limit 40;
  status CLOSED;
}
object fuse {
  name R5_12_47_3_fuse_120;
// downstream 6.54 kva on AS
  phases AN;
  from R5_12_47_3_node_941;
  to R5_12_47_3_node_942;
  mean_replacement_time 3600;
  current_limit 40;
  status CLOSED;
}
object fuse {
  name R5_12_47_3_fuse_121;
// downstream 6.67 kva on AS
  phases AN;
  from R5_12_47_3_node_952;
  to R5_12_47_3_node_953;
  mean_replacement_time 3600;
  current_limit 40;
  status CLOSED;
}
object fuse {
  name R5_12_47_3_fuse_122;
// downstream 13.68 kva on BS
  phases BN;
  from R5_12_47_3_node_1008;
  to R5_12_47_3_node_957;
  mean_replacement_time 3600;
  current_limit 40;
  status CLOSED;
}
object fuse {
  name R5_12_47_3_fuse_123;
// downstream 49.64 kva on BS
  phases BN;
  from R5_12_47_3_node_1245;
  to R5_12_47_3_node_964;
  mean_replacement_time 3600;
  current_limit 40;
  status CLOSED;
}
object fuse {
  name R5_12_47_3_fuse_124;
// downstream 17.32 kva on CS
  phases CN;
  from R5_12_47_3_node_973;
  to R5_12_47_3_node_975;
  mean_replacement_time 3600;
  current_limit 40;
  status CLOSED;
}
object fuse {
  name R5_12_47_3_fuse_125;
// downstream 33.11 kva on CS
  phases CN;
  from R5_12_47_3_node_983;
  to R5_12_47_3_node_977;
  mean_replacement_time 3600;
  current_limit 40;
  status CLOSED;
}
object fuse {
  name R5_12_47_3_fuse_126;
// downstream 9.57 kva on BS
  phases BN;
  from R5_12_47_3_node_1005;
  to R5_12_47_3_node_1006;
  mean_replacement_time 3600;
  current_limit 40;
  status CLOSED;
}
object fuse {
  name R5_12_47_3_fuse_127;
// downstream 77.34 kva on AS
  phases AN;
  from R5_12_47_3_node_494;
  to R5_12_47_3_node_1028;
  mean_replacement_time 3600;
  current_limit 40;
  status CLOSED;
}
object fuse {
  name R5_12_47_3_fuse_128;
// downstream 9.18 kva on AS
  phases AN;
  from R5_12_47_3_node_1029;
  to R5_12_47_3_node_1030;
  mean_replacement_time 3600;
  current_limit 40;
  status CLOSED;
}
object fuse {
  name R5_12_47_3_fuse_129;
// downstream 44.75 kva on AS
  phases AN;
  from R5_12_47_3_node_1033;
  to R5_12_47_3_node_1032;
  mean_replacement_time 3600;
  current_limit 40;
  status CLOSED;
}
object fuse {
  name R5_12_47_3_fuse_130;
// downstream 132.04 kva on AS
  phases AN;
  from R5_12_47_3_node_1048;
  to R5_12_47_3_node_1049;
  mean_replacement_time 3600;
  current_limit 65;
  status CLOSED;
}
object fuse {
  name R5_12_47_3_fuse_131;
// downstream 10.78 kva on BS
  phases BN;
  from R5_12_47_3_node_1052;
  to R5_12_47_3_node_1053;
  mean_replacement_time 3600;
  current_limit 40;
  status CLOSED;
}
object fuse {
  name R5_12_47_3_fuse_132;
// downstream 58.80 kva on BS
  phases BN;
  from R5_12_47_3_node_1055;
  to R5_12_47_3_node_1056;
  mean_replacement_time 3600;
  current_limit 40;
  status CLOSED;
}
object fuse {
  name R5_12_47_3_fuse_133;
// downstream 1.08 kva on B
  phases BN;
  from R5_12_47_3_node_205;
  to R5_12_47_3_node_1061;
  mean_replacement_time 3600;
  current_limit 40;
  status CLOSED;
}
object fuse {
  name R5_12_47_3_fuse_134;
// downstream 20.33 kva on BS
  phases BN;
  from R5_12_47_3_node_207;
  to R5_12_47_3_node_1062;
  mean_replacement_time 3600;
  current_limit 40;
  status CLOSED;
}
object fuse {
  name R5_12_47_3_fuse_135;
// downstream 1.48 kva on CS
  phases CN;
  from R5_12_47_3_node_673;
  to R5_12_47_3_node_1066;
  mean_replacement_time 3600;
  current_limit 40;
  status CLOSED;
}
object fuse {
...